LTspice 24.0.9 for Windows
Circuit: *
Start Time: Wed Feb 11 04:54:40 2026
solver = Normal
Maximum thread count: 16
tnom = 27
temp = 27
method = modified trap
Direct Newton iteration for .op point succeeded.

gain: MAX(mag(v(out)))=(29.1388dB,0°) FROM 1000 TO 1e+09
bw: mag(v(out))=gain/sqrt(2) AT 4.80547e+06

Total elapsed time: 0.137 seconds.

