LTspice 24.0.9 for Windows
Circuit: *
Start Time: Sat Jan 10 03:26:29 2026
solver = Normal
Maximum thread count: 16
tnom = 27
temp = 27
method = modified trap
Direct Newton iteration for .op point succeeded.

gain: MAX(mag(v(out)))=(13.5535dB,0°) FROM 1000 TO 1e+09
bw: mag(v(out))=gain/sqrt(2) AT 1.57318e+07

Total elapsed time: 0.076 seconds.

