LTspice 24.0.9 for Windows
Circuit: * Resistive Divider
Start Time: Sat Jan 10 03:09:43 2026
solver = Normal
Maximum thread count: 16
tnom = 27
temp = 27
method = modified trap
Direct Newton iteration for .op point succeeded.
Total elapsed time: 0.002 seconds.

